final_year_rev4/opendss/KeralaIEEE13Nodeckt_Power_elem_kVA.txt

CIRCUIT ELEMENT POWER FLOW

(Power Flow into element from indicated Bus)

Power Delivery Elements

  Bus Phase     kW     +j   kvar         kVA         PF

ELEMENT = "Vsource.source"
SOURCEBUS    1       -98.0 +j     78.2      125.4      -0.7813
SOURCEBUS    2       -88.8 +j     66.5      110.9      -0.8001
SOURCEBUS    3       -83.2 +j     80.4      115.7      -0.7193
   TERMINAL TOTAL  -269.9 +j    225.1      351.5      -0.7679
SOURCEBUS    0         0.0 +j      0.0        0.0       1.0000
SOURCEBUS    0         0.0 +j      0.0        0.0       1.0000
SOURCEBUS    0         0.0 +j      0.0        0.0       1.0000
   TERMINAL TOTAL     0.0 +j      0.0        0.0       1.0000

ELEMENT = "Transformer.sub"
SOURCEBUS     1        98.0 +j    -78.2      125.4      -0.7813
SOURCEBUS     2        88.8 +j    -66.5      110.9      -0.8001
SOURCEBUS     3        83.2 +j    -80.4      115.7      -0.7193
SOURCEBUS     0         0.0 +j      0.0        0.0       1.0000
   TERMINAL TOTAL   269.9 +j   -225.1      351.5      -0.7679
650      1       -56.1 +j     68.3       88.4      -0.6347
650      2      -127.5 +j     47.5      136.1      -0.9370
650      3       -86.1 +j    110.4      140.0      -0.6152
650      0        -0.0 +j      0.0        0.0       1.0000
   TERMINAL TOTAL  -269.8 +j    226.3      352.1      -0.7662

ELEMENT = "Line.650632"
650      1        56.1 +j    -68.3       88.4      -0.6347
650      2       127.5 +j    -47.5      136.1      -0.9370
650      3        86.1 +j   -110.4      140.0      -0.6152
   TERMINAL TOTAL   269.8 +j   -226.3      352.1      -0.7662
632      1       -56.1 +j     68.3       88.4      -0.6347
632      2      -127.2 +j     47.7      135.9      -0.9364
632      3       -86.0 +j    110.6      140.1      -0.6135
   TERMINAL TOTAL  -269.3 +j    226.7      352.0      -0.7651

ELEMENT = "Line.632670"
632      1        55.9 +j    -80.7       98.2      -0.5693
632      2        50.8 +j    -82.5       96.9      -0.5243
632      3        90.8 +j   -121.0      151.2      -0.6004
   TERMINAL TOTAL   197.5 +j   -284.2      346.1      -0.5707
670      1       -55.9 +j     80.8       98.2      -0.5691
670      2       -50.8 +j     82.5       96.9      -0.5241
670      3       -90.7 +j    121.0      151.3      -0.5998
   TERMINAL TOTAL  -197.4 +j    284.3      346.1      -0.5703

ELEMENT = "Line.670671"
670      1        55.9 +j    -80.8       98.2      -0.5691
670      2        50.8 +j    -82.5       96.9      -0.5241
670      3        90.7 +j   -121.0      151.3      -0.5998
   TERMINAL TOTAL   197.4 +j   -284.3      346.1      -0.5703
671      1       -55.9 +j     80.8       98.2      -0.5688
671      2       -50.7 +j     82.5       96.9      -0.5236
671      3       -90.6 +j    121.2      151.3      -0.5988
   TERMINAL TOTAL  -197.2 +j    284.5      346.1      -0.5697

ELEMENT = "Line.671680"
671      1         0.0 +j     -0.0        0.0      -0.0014
671      2        -0.0 +j     -0.0        0.0       0.0006
671      3        -0.0 +j     -0.0        0.0       0.0008
   TERMINAL TOTAL     0.0 +j     -0.1        0.1      -0.0000
680      1        -0.0 +j      0.0        0.0      -0.9607
680      2        -0.0 +j     -0.0        0.0       0.5057
680      3        -0.0 +j     -0.0        0.0       0.5568
   TERMINAL TOTAL    -0.0 +j     -0.0        0.0       0.9319

ELEMENT = "Line.632633"
632      1         0.2 +j     12.4       12.4       0.0172
632      2        -1.8 +j     11.4       11.5      -0.1571
632      3        -4.8 +j     10.3       11.4      -0.4250
   TERMINAL TOTAL    -6.4 +j     34.1       34.7      -0.1855
633      1        -0.2 +j    -12.4       12.4       0.0171
633      2         1.8 +j    -11.4       11.5      -0.1569
633      3         4.8 +j    -10.3       11.4      -0.4246
   TERMINAL TOTAL     6.4 +j    -34.1       34.7      -0.1853

ELEMENT = "Line.632645"
632      2         0.0 +j      0.0        0.0       0.8088
   TERMINAL TOTAL     0.0 +j      0.0        0.0       0.8088

ELEMENT = "Line.645646"
645      2         0.0 +j      0.0        0.0       0.8088
   TERMINAL TOTAL     0.0 +j      0.0        0.0       0.8088

ELEMENT = "Line.671684"
671      3         0.0 +j      0.0        0.0       0.8088
   TERMINAL TOTAL     0.0 +j      0.0        0.0       0.8088

ELEMENT = "Line.684611"
684      3         0.0 +j      0.0        0.0       0.8088
   TERMINAL TOTAL     0.0 +j      0.0        0.0       0.8088

ELEMENT = "Line.684652"
684      1         0.0 +j      0.0        0.0       1.0000
   TERMINAL TOTAL     0.0 +j      0.0        0.0       1.0000

ELEMENT = "Line.671692"
671      1        55.9 +j    -80.8       98.2      -0.5689
671      2        50.7 +j    -82.5       96.8      -0.5237
671      3        45.6 +j    -84.7       96.2      -0.4737
   TERMINAL TOTAL   152.2 +j   -248.0      290.9      -0.5230
692      1       -55.9 +j     80.8       98.2      -0.5689
692      2       -50.7 +j     82.5       96.8      -0.5237
692      3       -45.6 +j     84.7       96.2      -0.4737
   TERMINAL TOTAL  -152.2 +j    248.0      290.9      -0.5230

ELEMENT = "Line.692675"
692      1        55.9 +j    -80.8       98.2      -0.5689
692      2        50.7 +j    -82.5       96.8      -0.5237
692      3        45.6 +j    -84.7       96.2      -0.4737
   TERMINAL TOTAL   152.2 +j   -248.0      290.9      -0.5230
675      1       -55.8 +j     80.8       98.2      -0.5687
675      2       -50.7 +j     82.5       96.8      -0.5235
675      3       -45.6 +j     84.7       96.2      -0.4736
   TERMINAL TOTAL  -152.1 +j    248.0      290.9      -0.5228

ELEMENT = "Transformer.dt633"
633      1        40.2 +j     12.4       42.1       0.9554
633      2        38.2 +j     11.4       39.9       0.9583
633      3        35.2 +j     10.3       36.6       0.9595
633      0         0.0 +j     -0.0        0.0       1.0000
   TERMINAL TOTAL   113.6 +j     34.1      118.6       0.9577
633LV     1       -40.0 +j    -12.0       41.8       0.9578
633LV     2       -38.0 +j    -11.0       39.6       0.9606
633LV     3       -35.0 +j    -10.0       36.4       0.9615
633LV     0         0.0 +j      0.0        0.0       1.0000
   TERMINAL TOTAL  -113.0 +j    -33.0      117.7       0.9599

ELEMENT = "Transformer.dt675"
675      1        55.8 +j     19.7       59.2       0.9432
675      2        50.7 +j     17.4       53.6       0.9459
675      3        45.6 +j     16.1       48.3       0.9428
675      0         0.0 +j     -0.0        0.0       1.0000
   TERMINAL TOTAL   152.1 +j     53.2      161.1       0.9440
675LV     1       -55.0 +j    -18.0       57.9       0.9504
675LV     2       -50.0 +j    -16.0       52.5       0.9524
675LV     3       -45.0 +j    -15.0       47.4       0.9487
675LV     0         0.0 +j      0.0        0.0       1.0000
   TERMINAL TOTAL  -150.0 +j    -49.0      157.8       0.9506

ELEMENT = "Transformer.dt646"
646      1         0.0 +j      0.0        0.0       1.0000
646      2        18.2 +j      5.4       19.0       0.9583
646      3         0.0 +j      0.0        0.0       1.0000
646      0         0.0 +j      0.0        0.0       1.0000
   TERMINAL TOTAL    18.2 +j      5.4       19.0       0.9583
646LV     1         0.0 +j      0.0        0.0       1.0000
646LV     2       -18.0 +j     -5.0       18.7       0.9635
646LV     3         0.0 +j      0.0        0.0       1.0000
646LV     0        -0.0 +j      0.0        0.0       1.0000
   TERMINAL TOTAL   -18.0 +j     -5.0       18.7       0.9635

ELEMENT = "Capacitor.cap1"
675      1         0.0 +j   -100.4      100.4       1.0000
675      2         0.0 +j    -99.9       99.9       1.0000
675      3         0.0 +j   -100.8      100.8       1.0000
   TERMINAL TOTAL     0.0 +j   -301.2      301.2       1.0000
675      0        -0.0 +j      0.0        0.0       1.0000
675      0         0.0 +j     -0.0        0.0       1.0000
675      0         0.0 +j      0.0        0.0       1.0000
   TERMINAL TOTAL     0.0 +j      0.0        0.0       1.0000

ELEMENT = "Capacitor.cap2"
611      3         0.0 +j    -50.4       50.4       1.0000
   TERMINAL TOTAL     0.0 +j    -50.4       50.4       1.0000

= = = = = = = = = = = = = = = = = = =  = = = = = = = = = = =  = =

Power Conversion Elements

  Bus Phase     kW   +j  kvar         kVA         PF

ELEMENT = "Load.h1"
633LV     1      40.0 +j   12.0       41.8       0.9578
633LV     0       0.0 +j   -0.0        0.0       1.0000
  TERMINAL TOTAL     40.0 +j     12.0       41.8       0.9578

ELEMENT = "Load.h2"
633LV     2      38.0 +j   11.0       39.6       0.9606
633LV     0       0.0 +j    0.0        0.0       1.0000
  TERMINAL TOTAL     38.0 +j     11.0       39.6       0.9606

ELEMENT = "Load.h3"
633LV     3      35.0 +j   10.0       36.4       0.9615
633LV     0       0.0 +j    0.0        0.0       1.0000
  TERMINAL TOTAL     35.0 +j     10.0       36.4       0.9615

ELEMENT = "Load.c1"
675LV     1      55.0 +j   18.0       57.9       0.9504
675LV     0       0.0 +j   -0.0        0.0       1.0000
  TERMINAL TOTAL     55.0 +j     18.0       57.9       0.9504

ELEMENT = "Load.c2"
675LV     2      50.0 +j   16.0       52.5       0.9524
675LV     0       0.0 +j    0.0        0.0       1.0000
  TERMINAL TOTAL     50.0 +j     16.0       52.5       0.9524

ELEMENT = "Load.c3"
675LV     3      45.0 +j   15.0       47.4       0.9487
675LV     0       0.0 +j    0.0        0.0       1.0000
  TERMINAL TOTAL     45.0 +j     15.0       47.4       0.9487

ELEMENT = "Load.r1"
646LV     1       0.0 +j    0.0        0.0       1.0000
646LV     0       0.0 +j    0.0        0.0       1.0000
  TERMINAL TOTAL      0.0 +j      0.0        0.0       1.0000

ELEMENT = "Load.r2"
646LV     2      18.0 +j    5.0       18.7       0.9635
646LV     0       0.0 +j    0.0        0.0       1.0000
  TERMINAL TOTAL     18.0 +j      5.0       18.7       0.9635

ELEMENT = "Load.r3"
646LV     3       0.0 +j    0.0        0.0       1.0000
646LV     0       0.0 +j    0.0        0.0       1.0000
  TERMINAL TOTAL      0.0 +j      0.0        0.0       1.0000

ELEMENT = "Load.l645"
645      2      60.0 +j   18.0       62.6       0.9578
645      0       0.0 +j    0.0        0.0       1.0000
  TERMINAL TOTAL     60.0 +j     18.0       62.6       0.9578

ELEMENT = "Load.l611"
611      3      45.0 +j   14.0       47.1       0.9549
611      0       0.0 +j    0.0        0.0       1.0000
  TERMINAL TOTAL     45.0 +j     14.0       47.1       0.9549

ELEMENT = "Load.l652"
652      1       0.0 +j    0.0        0.0       1.0000
652      0       0.0 +j    0.0        0.0       1.0000
  TERMINAL TOTAL      0.0 +j      0.0        0.0       1.0000

ELEMENT = "PVSystem.pv633"
633      1     -40.0 +j   -0.0       40.0       1.0000
633      2     -40.0 +j   -0.0       40.0       1.0000
633      3     -40.0 +j   -0.0       40.0       1.0000
633      0      -0.0 +j    0.0        0.0       1.0000
  TERMINAL TOTAL   -120.0 +j     -0.0      120.0       1.0000


Total Circuit Losses =    3.9 +j    7.4
