final_year_rev4/opendss/KeralaIEEE13Nodeckt_VLN_Node.txt

LINE-GROUND and LINE-LINE VOLTAGES BY BUS & NODE

Bus  Node    VLN (kV)   Angle      pu     Base kV    Node-Node   VLL (kV)  Angle      pu

SOURCEBUS .. 1       19.053 /_   30.0         1    33.000        1-2     33.001 /_   60.0         1
   -         2       19.053 /_  -90.0         1    33.000        2-3     33.001 /_  -60.0         1
   -         3       19.053 /_  150.0         1    33.000        3-1     33.001 /_  180.0         1
650 ........ 1       6.3604 /_   -0.1    1.0015    11.000        1-2     11.018 /_   29.8    1.0016
   -         2       6.3558 /_ -120.2    1.0008    11.000        2-3     11.015 /_  -90.1    1.0014
   -         3       6.3662 /_  119.9    1.0024    11.000        3-1     11.019 /_  149.9    1.0017
632 ........ 1       6.3613 /_   -0.1    1.0016    11.000        1-2     11.017 /_   29.7    1.0015
   -         2       6.3467 /_ -120.3   0.99934    11.000        2-3     11.014 /_  -90.2    1.0012
   -         3       6.3736 /_  119.7    1.0036    11.000        3-1      11.02 /_  149.8    1.0018
670 ........ 1       6.3625 /_   -0.1    1.0018    11.000        1-2     11.018 /_   29.7    1.0017
   -         2       6.3467 /_ -120.3   0.99934    11.000        2-3     11.016 /_  -90.3    1.0014
   -         3       6.3749 /_  119.7    1.0038    11.000        3-1      11.02 /_  149.7    1.0018
671 ........ 1       6.3646 /_   -0.2    1.0022    11.000        1-2      11.02 /_   29.7    1.0019
   -         2       6.3466 /_ -120.4   0.99934    11.000        2-3      11.02 /_  -90.3    1.0018
   -         3        6.377 /_  119.6    1.0041    11.000        3-1     11.021 /_  149.7    1.0019
680 ........ 1       6.3646 /_   -0.2    1.0022    11.000        1-2      11.02 /_   29.7    1.0019
   -         2       6.3466 /_ -120.4   0.99934    11.000        2-3      11.02 /_  -90.3    1.0018
   -         3        6.377 /_  119.6    1.0041    11.000        3-1     11.021 /_  149.7    1.0019
633 ........ 1       6.3611 /_   -0.1    1.0016    11.000        1-2     11.017 /_   29.8    1.0015
   -         2       6.3466 /_ -120.3   0.99932    11.000        2-3     11.013 /_  -90.2    1.0012
   -         3       6.3736 /_  119.7    1.0036    11.000        3-1     11.019 /_  149.8    1.0018
645 ........ 2       6.3446 /_ -120.3   0.99902    11.000
646 ........ 1            0 /_    0.0         0    11.000        1-2     6.3443 /_   59.7   0.57676
   -         2       6.3443 /_ -120.3   0.99897    11.000        2-3     6.3443 /_ -120.3   0.57676
   -         3            0 /_    0.0         0    11.000        3-1          0 /_    0.0         0
684 ........ 1            0 /_    0.0         0    11.000
   -         3       6.3767 /_  119.6    1.0041    11.000        3-1     6.3767 /_  119.6    0.5797
611 ........ 3       6.3765 /_  119.6     1.004    11.000
652 ........ 1            0 /_    0.0         0    33.000
692 ........ 1       6.3646 /_   -0.2    1.0022    11.000        1-2      11.02 /_   29.7    1.0019
   -         2       6.3467 /_ -120.4   0.99934    11.000        2-3      11.02 /_  -90.3    1.0018
   -         3        6.377 /_  119.6    1.0041    11.000        3-1     11.021 /_  149.7    1.0019
675 ........ 1       6.3649 /_   -0.2    1.0022    11.000        1-2     11.021 /_   29.7    1.0019
   -         2       6.3472 /_ -120.4   0.99943    11.000        2-3     11.021 /_  -90.3    1.0019
   -         3       6.3776 /_  119.6    1.0042    11.000        3-1     11.022 /_  149.7     1.002
633LV ...... 1      0.24845 /_   -0.6   0.99385     0.433        1-2    0.43035 /_   29.3   0.99388
   -         2        0.248 /_ -120.8   0.99204     0.433        2-3    0.43043 /_  -90.6   0.99406
   -         3      0.24922 /_  119.3   0.99693     0.433        3-1    0.43078 /_  149.3   0.99486
675LV ...... 1      0.24491 /_   -1.5   0.97967     0.433        1-2    0.42432 /_   28.5   0.97995
   -         2      0.24477 /_ -121.6   0.97912     0.433        2-3    0.42514 /_  -91.4   0.98184
   -         3      0.24644 /_  118.5   0.98579     0.433        3-1    0.42555 /_  148.4   0.98279
646LV ...... 1            0 /_    0.0         0    33.000        1-2    0.24541 /_   58.6 0.0074367
   -         2      0.24541 /_ -121.4  0.012881    33.000        2-3    0.24541 /_ -121.4 0.0074367
   -         3            0 /_    0.0         0    33.000        3-1          0 /_    0.0         0
